<?xml version="1.0" encoding="UTF-8"?>

<!-- generated on 2022-10-24 19:56:18.819101 by osmWebWizard.py UNKNOWN
<configuration>
    <allow-fringe.min-length value="1000.0"/>
    <end value="3600"/>
    <fringe-factor value="5.0"/>
    <fringe-start-attributes value="departSpeed=&quot;max&quot;"/>
    <insertion-density value="12.0"/>
    <lanes value="True"/>
    <min-distance.fringe value="10.0"/>
    <min-distance value="300.0"/>
    <net-file value="/opt/homebrew/Cellar/sumo/HEAD-a9bb741/share/sumo/tools/2022-10-24-19-56-14/osm.net.xml.gz"/>
    <remove-loops value="True"/>
    <route-file value="/opt/homebrew/Cellar/sumo/HEAD-a9bb741/share/sumo/tools/2022-10-24-19-56-14/osm.passenger.rou.xml"/>
    <trip-attributes value="departLane=&quot;best&quot;"/>
    <output-trip-file value="/opt/homebrew/Cellar/sumo/HEAD-a9bb741/share/sumo/tools/2022-10-24-19-56-14/osm.passenger.trips.xml"/>
    <prefix value="veh"/>
    <validate value="True"/>
    <vehicle-class value="passenger"/>
</configuration>
-->

<!-- generated on 2022-10-24 19:56:18 by Eclipse SUMO duarouter Version v1_14_1+1447-a9bb7416089
<configuration xmlns:xsi="http://www.w3.org/2001/XMLSchema-instance" xsi:noNamespaceSchemaLocation="http://sumo.dlr.de/xsd/duarouterConfiguration.xsd">

    <input>
        <net-file value="/opt/homebrew/Cellar/sumo/HEAD-a9bb741/share/sumo/tools/2022-10-24-19-56-14/osm.net.xml.gz"/>
        <route-files value="/opt/homebrew/Cellar/sumo/HEAD-a9bb741/share/sumo/tools/2022-10-24-19-56-14/osm.passenger.trips.xml"/>
    </input>

    <output>
        <output-file value="/opt/homebrew/Cellar/sumo/HEAD-a9bb741/share/sumo/tools/2022-10-24-19-56-14/osm.passenger.trips.xml.tmp"/>
        <alternatives-output value="NUL"/>
        <write-trips value="true"/>
    </output>

    <processing>
        <remove-loops value="true"/>
    </processing>

    <time>
        <begin value="0"/>
        <end value="3600"/>
    </time>

    <report>
        <no-warnings value="true"/>
        <ignore-errors value="true"/>
        <no-step-log value="true"/>
    </report>

</configuration>
-->

<routes xmlns:xsi="http://www.w3.org/2001/XMLSchema-instance" xsi:noNamespaceSchemaLocation="http://sumo.dlr.de/xsd/routes_file.xsd">
    <vType id="veh_passenger" vClass="passenger"/>
    <trip id="veh0" type="veh_passenger" depart="0.00" departLane="best" from="-544274586#6" to="-35152764"/>
    <trip id="veh1" type="veh_passenger" depart="4.40" departLane="best" departSpeed="max" from="112358423#0" to="-8929949"/>
    <trip id="veh2" type="veh_passenger" depart="8.80" departLane="best" from="699686158" to="690062846"/>
    <trip id="veh3" type="veh_passenger" depart="13.21" departLane="best" from="8928883#2" to="-496372776#0"/>
    <trip id="veh4" type="veh_passenger" depart="17.61" departLane="best" from="417095009#0" to="-367486604#2"/>
    <trip id="veh5" type="veh_passenger" depart="22.01" departLane="best" from="-8939625#1" to="41891754#4"/>
    <trip id="veh6" type="veh_passenger" depart="26.41" departLane="best" from="-38133443#1" to="-8927866#3"/>
    <trip id="veh7" type="veh_passenger" depart="30.82" departLane="best" departSpeed="max" from="635376259#0" to="5018670#1"/>
    <trip id="veh8" type="veh_passenger" depart="35.22" departLane="best" from="-8945782#2" to="516413694#0"/>
    <trip id="veh9" type="veh_passenger" depart="39.62" departLane="best" departSpeed="max" from="706451963" to="112358427#2"/>
    <trip id="veh10" type="veh_passenger" depart="44.02" departLane="best" from="-690335908#0" to="693795524#0"/>
    <trip id="veh11" type="veh_passenger" depart="48.43" departLane="best" from="377332355#6" to="-690330589#4"/>
    <trip id="veh12" type="veh_passenger" depart="52.83" departLane="best" from="8952015#2" to="25819644#4"/>
    <trip id="veh13" type="veh_passenger" depart="57.23" departLane="best" from="-533628266#10" to="517626044"/>
    <trip id="veh14" type="veh_passenger" depart="61.63" departLane="best" from="767314544#1" to="517626044"/>
    <trip id="veh15" type="veh_passenger" depart="66.04" departLane="best" departSpeed="max" from="706451963" to="699683878#5"/>
    <trip id="veh16" type="veh_passenger" depart="70.44" departLane="best" from="496372776#1" to="8953730#6"/>
    <trip id="veh17" type="veh_passenger" depart="74.84" departLane="best" from="415635353#5" to="5018670#13"/>
    <trip id="veh18" type="veh_passenger" depart="79.24" departLane="best" from="706456180#5" to="53050253#4"/>
    <trip id="veh19" type="veh_passenger" depart="83.65" departLane="best" from="777865462#1" to="506687024#0"/>
    <trip id="veh20" type="veh_passenger" depart="88.05" departLane="best" from="693800743#0" to="-38133445#0"/>
    <trip id="veh21" type="veh_passenger" depart="92.45" departLane="best" departSpeed="max" from="-8947536" to="-8953730#3"/>
    <trip id="veh22" type="veh_passenger" depart="96.85" departLane="best" from="-53050253#0" to="-8932275#8"/>
    <trip id="veh23" type="veh_passenger" depart="101.26" departLane="best" from="-544274586#2" to="-8951737"/>
    <trip id="veh24" type="veh_passenger" depart="105.66" departLane="best" from="533628266#8" to="377332355#6"/>
    <trip id="veh25" type="veh_passenger" depart="110.06" departLane="best" from="385389249#1" to="-8928619#22"/>
    <trip id="veh26" type="veh_passenger" depart="114.46" departLane="best" from="8967972#1" to="-8938605#5"/>
    <trip id="veh27" type="veh_passenger" depart="118.87" departLane="best" departSpeed="max" from="635376259#0" to="52869636#2"/>
    <trip id="veh28" type="veh_passenger" depart="123.27" departLane="best" from="8927866#1" to="699683878#5"/>
    <trip id="veh29" type="veh_passenger" depart="127.67" departLane="best" from="-80210900" to="38133445#1"/>
    <trip id="veh30" type="veh_passenger" depart="132.07" departLane="best" departSpeed="max" from="8967972#0" to="544274586#9"/>
    <trip id="veh31" type="veh_passenger" depart="136.48" departLane="best" from="5018670#16" to="690335907"/>
    <trip id="veh32" type="veh_passenger" depart="140.88" departLane="best" from="707878803" to="699688806#3"/>
    <trip id="veh33" type="veh_passenger" depart="145.28" departLane="best" departSpeed="max" from="-8947536" to="-377332355#4"/>
    <trip id="veh34" type="veh_passenger" depart="149.68" departLane="best" from="8932859#1" to="8945782#0"/>
    <trip id="veh35" type="veh_passenger" depart="154.08" departLane="best" from="8927866#5" to="-8969749#1"/>
    <trip id="veh37" type="veh_passenger" depart="162.89" departLane="best" departSpeed="max" from="8938605#0" to="417096017"/>
    <trip id="veh38" type="veh_passenger" depart="167.29" departLane="best" from="-8961768#1" to="8939625#0"/>
    <trip id="veh39" type="veh_passenger" depart="171.69" departLane="best" from="514327810#0" to="-8927866#2"/>
    <trip id="veh40" type="veh_passenger" depart="176.10" departLane="best" departSpeed="max" from="417094214#0" to="8928883#7"/>
    <trip id="veh41" type="veh_passenger" depart="180.50" departLane="best" from="8969749#2" to="4809368#2"/>
    <trip id="veh42" type="veh_passenger" depart="184.90" departLane="best" departSpeed="max" from="-532956010#8" to="-38133445#2"/>
    <trip id="veh43" type="veh_passenger" depart="189.30" departLane="best" from="685732220#2" to="532956010#8"/>
    <trip id="veh44" type="veh_passenger" depart="193.71" departLane="best" from="700219904#0" to="417094219"/>
    <trip id="veh45" type="veh_passenger" depart="198.11" departLane="best" from="496372776#2" to="38133445#4"/>
    <trip id="veh46" type="veh_passenger" depart="202.51" departLane="best" from="-8969749#0" to="496364802"/>
    <trip id="veh47" type="veh_passenger" depart="206.91" departLane="best" from="8953750" to="767314544#4"/>
    <trip id="veh49" type="veh_passenger" depart="215.72" departLane="best" departSpeed="max" from="689987451#0" to="496364802-AddedOnRampEdge"/>
    <trip id="veh50" type="veh_passenger" depart="220.12" departLane="best" from="8967972#1" to="544274586#9"/>
    <trip id="veh51" type="veh_passenger" depart="224.52" departLane="best" from="-685743626" to="417095034"/>
    <trip id="veh52" type="veh_passenger" depart="228.93" departLane="best" from="417096017" to="8949114#0"/>
    <trip id="veh53" type="veh_passenger" depart="233.33" departLane="best" from="8927866#4" to="-8948399#0"/>
    <trip id="veh54" type="veh_passenger" depart="237.73" departLane="best" from="417922883" to="704635918#1"/>
    <trip id="veh55" type="veh_passenger" depart="242.13" departLane="best" departSpeed="max" from="8932859#0" to="777857576#1"/>
    <trip id="veh56" type="veh_passenger" depart="246.54" departLane="best" from="-517626044" to="-690330589#0"/>
    <trip id="veh57" type="veh_passenger" depart="250.94" departLane="best" from="699688806#14" to="5012169#0"/>
    <trip id="veh58" type="veh_passenger" depart="255.34" departLane="best" from="699688806#8" to="496364802"/>
    <trip id="veh59" type="veh_passenger" depart="259.74" departLane="best" from="-1086342624" to="112358427#0"/>
    <trip id="veh60" type="veh_passenger" depart="264.15" departLane="best" from="377332355#4" to="8932275#2"/>
    <trip id="veh61" type="veh_passenger" depart="268.55" departLane="best" from="8927866#9" to="706456180#3"/>
    <trip id="veh62" type="veh_passenger" depart="272.95" departLane="best" from="-264036022#2" to="-417095070#1"/>
    <trip id="veh63" type="veh_passenger" depart="277.35" departLane="best" from="-8927866#8" to="8947064#2"/>
    <trip id="veh64" type="veh_passenger" depart="281.75" departLane="best" from="-532956010#3" to="417096034#2"/>
    <trip id="veh65" type="veh_passenger" depart="286.16" departLane="best" from="-517626042" to="699688806#10"/>
    <trip id="veh66" type="veh_passenger" depart="290.56" departLane="best" from="699688806#2" to="574050534"/>
    <trip id="veh67" type="veh_passenger" depart="294.96" departLane="best" from="417096032#1" to="5018670#12"/>
    <trip id="veh68" type="veh_passenger" depart="299.36" departLane="best" from="-8961768#1" to="777857576#1"/>
    <trip id="veh70" type="veh_passenger" depart="308.17" departLane="best" from="5012169#0" to="699683878#5"/>
    <trip id="veh72" type="veh_passenger" depart="316.97" departLane="best" from="385243480#0" to="65592872#0"/>
    <trip id="veh73" type="veh_passenger" depart="321.38" departLane="best" from="417095072#1" to="496364798#4"/>
    <trip id="veh74" type="veh_passenger" depart="325.78" departLane="best" from="-690062845" to="-8932275#0"/>
    <trip id="veh75" type="veh_passenger" depart="330.18" departLane="best" from="377332355#5" to="516413694#0"/>
    <trip id="veh76" type="veh_passenger" depart="334.58" departLane="best" departSpeed="max" from="-8947536" to="8928883#9"/>
    <trip id="veh77" type="veh_passenger" depart="338.99" departLane="best" from="-517626044" to="-533628266#11"/>
    <trip id="veh78" type="veh_passenger" depart="343.39" departLane="best" departSpeed="max" from="-8947536" to="-8928619#16"/>
    <trip id="veh79" type="veh_passenger" depart="347.79" departLane="best" from="777770588#1" to="-41891754#0"/>
    <trip id="veh80" type="veh_passenger" depart="352.19" departLane="best" from="-8952015#1" to="-693836526"/>
    <trip id="veh81" type="veh_passenger" depart="356.60" departLane="best" from="-8939111#0" to="-685732220#2"/>
    <trip id="veh82" type="veh_passenger" depart="361.00" departLane="best" from="8947064#0" to="5018670#8"/>
    <trip id="veh83" type="veh_passenger" depart="365.40" departLane="best" from="417096032#0" to="699688806#8"/>
    <trip id="veh84" type="veh_passenger" depart="369.80" departLane="best" departSpeed="max" from="706451963" to="80210905#1"/>
    <trip id="veh85" type="veh_passenger" depart="374.21" departLane="best" from="-544274586#1" to="417095014"/>
    <trip id="veh88" type="veh_passenger" depart="387.41" departLane="best" departSpeed="max" from="417094214#0" to="264036022#2"/>
    <trip id="veh89" type="veh_passenger" depart="391.82" departLane="best" from="777865462#1" to="-8940208#0"/>
    <trip id="veh90" type="veh_passenger" depart="396.22" departLane="best" from="-8928619#29" to="417096015#0"/>
    <trip id="veh91" type="veh_passenger" depart="400.62" departLane="best" from="417095009#0" to="-8951737"/>
    <trip id="veh92" type="veh_passenger" depart="405.02" departLane="best" from="8953730#5" to="8929744"/>
    <trip id="veh93" type="veh_passenger" depart="409.43" departLane="best" from="5018670#13" to="38311669#0"/>
    <trip id="veh95" type="veh_passenger" depart="418.23" departLane="best" from="8953730#5" to="8929949"/>
    <trip id="veh96" type="veh_passenger" depart="422.63" departLane="best" from="767314544#2" to="-694350547"/>
    <trip id="veh97" type="veh_passenger" depart="427.03" departLane="best" from="-417101894" to="-8928619#30"/>
    <trip id="veh98" type="veh_passenger" depart="431.44" departLane="best" departSpeed="max" from="417094214#0" to="-417095070#1"/>
    <trip id="veh99" type="veh_passenger" depart="435.84" departLane="best" from="415635353#5" to="8960784#2"/>
    <trip id="veh100" type="veh_passenger" depart="440.24" departLane="best" from="417096020#0" to="417094219"/>
    <trip id="veh101" type="veh_passenger" depart="444.64" departLane="best" from="8952015#2" to="8968729#0"/>
    <trip id="veh102" type="veh_passenger" depart="449.05" departLane="best" from="5018670#16" to="699683874"/>
    <trip id="veh103" type="veh_passenger" depart="453.45" departLane="best" departSpeed="max" from="-706452267" to="-8959194#3"/>
    <trip id="veh104" type="veh_passenger" depart="457.85" departLane="best" from="8953730#5" to="514327810#0"/>
    <trip id="veh106" type="veh_passenger" depart="466.66" departLane="best" departSpeed="max" from="-496364798#8" to="514327819#0"/>
    <trip id="veh107" type="veh_passenger" depart="471.06" departLane="best" departSpeed="max" from="41891754#0" to="-942762357"/>
    <trip id="veh108" type="veh_passenger" depart="475.46" departLane="best" departSpeed="max" from="-706452267" to="-8952015#2"/>
    <trip id="veh109" type="veh_passenger" depart="479.86" departLane="best" from="-53050253#1" to="707878803"/>
    <trip id="veh110" type="veh_passenger" depart="484.27" departLane="best" from="516413694#0" to="690062845"/>
    <trip id="veh111" type="veh_passenger" depart="488.67" departLane="best" departSpeed="max" from="-8950453" to="544274586#1"/>
    <trip id="veh112" type="veh_passenger" depart="493.07" departLane="best" from="8928619#30" to="8939625#0"/>
    <trip id="veh114" type="veh_passenger" depart="501.88" departLane="best" from="417094223#2" to="514327819#0"/>
    <trip id="veh115" type="veh_passenger" depart="506.28" departLane="best" from="-496364798#0" to="-8938605#1"/>
    <trip id="veh116" type="veh_passenger" depart="510.68" departLane="best" from="-8929949" to="698370596#3"/>
    <trip id="veh118" type="veh_passenger" depart="519.49" departLane="best" from="-685931320#2" to="-8960288"/>
    <trip id="veh119" type="veh_passenger" depart="523.89" departLane="best" from="30125081#0" to="699686162#0"/>
    <trip id="veh120" type="veh_passenger" depart="528.29" departLane="best" from="-52869636#0" to="417096017"/>
    <trip id="veh122" type="veh_passenger" depart="537.10" departLane="best" from="-52869636#1" to="-8928619#3"/>
    <trip id="veh123" type="veh_passenger" depart="541.50" departLane="best" from="-8961768#1" to="8932275#8"/>
    <trip id="veh124" type="veh_passenger" depart="545.90" departLane="best" from="8928619#14" to="80210899#0"/>
    <trip id="veh125" type="veh_passenger" depart="550.30" departLane="best" from="385389249#1" to="-690335908#1"/>
    <trip id="veh126" type="veh_passenger" depart="554.71" departLane="best" from="-52869636#0" to="8961768#1"/>
    <trip id="veh127" type="veh_passenger" depart="559.11" departLane="best" from="65592873#1" to="-112358427#4"/>
    <trip id="veh128" type="veh_passenger" depart="563.51" departLane="best" from="706455037" to="-8960288"/>
    <trip id="veh129" type="veh_passenger" depart="567.91" departLane="best" from="685678107#0" to="8939349"/>
    <trip id="veh130" type="veh_passenger" depart="572.31" departLane="best" from="693800743#4" to="533628266#10"/>
    <trip id="veh131" type="veh_passenger" depart="576.72" departLane="best" from="-685732218#1" to="5018670#14"/>
    <trip id="veh132" type="veh_passenger" depart="581.12" departLane="best" from="698370596#1" to="-8928619#1"/>
    <trip id="veh133" type="veh_passenger" depart="585.52" departLane="best" from="-533628266#4" to="-8948399#0"/>
    <trip id="veh134" type="veh_passenger" depart="589.92" departLane="best" departSpeed="max" from="417101900#0" to="8928619#15"/>
    <trip id="veh135" type="veh_passenger" depart="594.33" departLane="best" from="767314544#1" to="-516414625#1"/>
    <trip id="veh137" type="veh_passenger" depart="603.13" departLane="best" from="-112358427#3" to="699688806#15"/>
    <trip id="veh138" type="veh_passenger" depart="607.53" departLane="best" from="-544274586#1" to="-8947064#5"/>
    <trip id="veh139" type="veh_passenger" depart="611.94" departLane="best" from="52869636#2" to="80210899#1"/>
    <trip id="veh140" type="veh_passenger" depart="616.34" departLane="best" departSpeed="max" from="8932275#0" to="5018670#10"/>
    <trip id="veh141" type="veh_passenger" depart="620.74" departLane="best" from="706456180#8" to="514327810#1"/>
    <trip id="veh142" type="veh_passenger" depart="625.14" departLane="best" from="-704635145#6" to="574050534"/>
    <trip id="veh143" type="veh_passenger" depart="629.55" departLane="best" from="704612179#0" to="767314544#4"/>
    <trip id="veh144" type="veh_passenger" depart="633.95" departLane="best" from="-685743626" to="-8928619#23"/>
    <trip id="veh145" type="veh_passenger" depart="638.35" departLane="best" from="8953730#5" to="52869636#4"/>
    <trip id="veh146" type="veh_passenger" depart="642.75" departLane="best" departSpeed="max" from="417094214#0" to="53050578#0"/>
    <trip id="veh147" type="veh_passenger" depart="647.16" departLane="best" departSpeed="max" from="-706452267" to="8932275#3"/>
    <trip id="veh148" type="veh_passenger" depart="651.56" departLane="best" from="80210905#1" to="8957764"/>
    <trip id="veh149" type="veh_passenger" depart="655.96" departLane="best" departSpeed="max" from="706451963" to="80210899#1"/>
    <trip id="veh150" type="veh_passenger" depart="660.36" departLane="best" from="38133440#0" to="699683878#6"/>
    <trip id="veh151" type="veh_passenger" depart="664.77" departLane="best" from="367486604#1" to="8932275#5"/>
    <trip id="veh152" type="veh_passenger" depart="669.17" departLane="best" from="-705757615" to="772988468#1"/>
    <trip id="veh153" type="veh_passenger" depart="673.57" departLane="best" from="8927866#12" to="767314544#3"/>
    <trip id="veh154" type="veh_passenger" depart="677.97" departLane="best" from="-8947062#1" to="706455034#1"/>
    <trip id="veh155" type="veh_passenger" depart="682.38" departLane="best" from="417096026#0" to="-8965246"/>
    <trip id="veh156" type="veh_passenger" depart="686.78" departLane="best" from="704612177" to="-8932275#0"/>
    <trip id="veh157" type="veh_passenger" depart="691.18" departLane="best" from="-377332356#3" to="-8927866#0"/>
    <trip id="veh158" type="veh_passenger" depart="695.58" departLane="best" departSpeed="max" from="35152764" to="772988468#1"/>
    <trip id="veh159" type="veh_passenger" depart="699.99" departLane="best" from="-8953730#3" to="-8952015#0"/>
    <trip id="veh160" type="veh_passenger" depart="704.39" departLane="best" from="574034441#0" to="-415635353#4"/>
    <trip id="veh161" type="veh_passenger" depart="708.79" departLane="best" from="8961768#2" to="496364802-AddedOnRampEdge"/>
    <trip id="veh162" type="veh_passenger" depart="713.19" departLane="best" from="8948322" to="-533628266#10"/>
    <trip id="veh163" type="veh_passenger" depart="717.59" departLane="best" from="8953730#7" to="704635918#1"/>
    <trip id="veh164" type="veh_passenger" depart="722.00" departLane="best" from="8953730#15" to="-8948399#0"/>
    <trip id="veh165" type="veh_passenger" depart="726.40" departLane="best" from="685732220#0" to="417095025"/>
    <trip id="veh168" type="veh_passenger" depart="739.61" departLane="best" from="417094203" to="506687024#0"/>
    <trip id="veh169" type="veh_passenger" depart="744.01" departLane="best" departSpeed="max" from="-8957764" to="694350652#2"/>
    <trip id="veh170" type="veh_passenger" depart="748.41" departLane="best" from="112358423#2" to="8929744"/>
    <trip id="veh172" type="veh_passenger" depart="757.22" departLane="best" from="699686160" to="-688931793#1"/>
    <trip id="veh173" type="veh_passenger" depart="761.62" departLane="best" from="385389239#1" to="-41891754#0"/>
    <trip id="veh174" type="veh_passenger" depart="766.02" departLane="best" from="685678107#1" to="22942494"/>
    <trip id="veh175" type="veh_passenger" depart="770.42" departLane="best" from="275400486#1" to="706460748#1"/>
    <trip id="veh176" type="veh_passenger" depart="774.83" departLane="best" from="699683874" to="-8960288"/>
    <trip id="veh177" type="veh_passenger" depart="779.23" departLane="best" from="-264036022#5" to="417094205#0"/>
    <trip id="veh178" type="veh_passenger" depart="783.63" departLane="best" departSpeed="max" from="417094214#0" to="8959194#1"/>
    <trip id="veh179" type="veh_passenger" depart="788.03" departLane="best" from="-690330589#5" to="417094217#2"/>
    <trip id="veh180" type="veh_passenger" depart="792.44" departLane="best" departSpeed="max" from="8948399#0" to="690243741"/>
    <trip id="veh181" type="veh_passenger" depart="796.84" departLane="best" departSpeed="max" from="8932275#0" to="52975946#2"/>
    <trip id="veh182" type="veh_passenger" depart="801.24" departLane="best" from="24217961#2" to="5018670#11"/>
    <trip id="veh183" type="veh_passenger" depart="805.64" departLane="best" from="-1086342624" to="-8953730#18"/>
    <trip id="veh184" type="veh_passenger" depart="810.05" departLane="best" departSpeed="max" from="417095063" to="514327810#0"/>
    <trip id="veh185" type="veh_passenger" depart="814.45" departLane="best" from="65592873#1" to="417096026#0"/>
    <trip id="veh186" type="veh_passenger" depart="818.85" departLane="best" from="417096014" to="-8928619#30"/>
    <trip id="veh187" type="veh_passenger" depart="823.25" departLane="best" from="417096032#0" to="8927866#8"/>
    <trip id="veh188" type="veh_passenger" depart="827.66" departLane="best" from="704612179#0" to="694350652#3"/>
    <trip id="veh189" type="veh_passenger" depart="832.06" departLane="best" from="-532956010#2" to="496364798#1"/>
    <trip id="veh190" type="veh_passenger" depart="836.46" departLane="best" from="533628266#11" to="25819644#1"/>
    <trip id="veh191" type="veh_passenger" depart="840.86" departLane="best" from="706455037" to="699686161"/>
    <trip id="veh192" type="veh_passenger" depart="845.26" departLane="best" departSpeed="max" from="688931793#0" to="-8932275#0"/>
    <trip id="veh193" type="veh_passenger" depart="849.67" departLane="best" from="-8929728#1" to="-35152764"/>
    <trip id="veh194" type="veh_passenger" depart="854.07" departLane="best" from="8953730#17" to="417096031#1"/>
    <trip id="veh195" type="veh_passenger" depart="858.47" departLane="best" from="767314544#2" to="-41891754#1"/>
    <trip id="veh196" type="veh_passenger" depart="862.87" departLane="best" from="-8928883#3" to="693792677#0"/>
    <trip id="veh197" type="veh_passenger" depart="867.28" departLane="best" from="417101900#1" to="8939111#1"/>
    <trip id="veh198" type="veh_passenger" depart="871.68" departLane="best" from="30860800#2" to="-112358427#0"/>
    <trip id="veh199" type="veh_passenger" depart="876.08" departLane="best" from="699686920#2" to="699688806#14"/>
    <trip id="veh200" type="veh_passenger" depart="880.48" departLane="best" from="614926362" to="417094221#1"/>
    <trip id="veh201" type="veh_passenger" depart="884.89" departLane="best" from="8927866#2" to="8950453"/>
    <trip id="veh202" type="veh_passenger" depart="889.29" departLane="best" from="4809368#2" to="-38133445#6"/>
    <trip id="veh203" type="veh_passenger" depart="893.69" departLane="best" from="417096020#1" to="700941431"/>
    <trip id="veh204" type="veh_passenger" depart="898.09" departLane="best" from="685732220#0" to="8961768#2"/>
    <trip id="veh206" type="veh_passenger" depart="906.90" departLane="best" from="699683874" to="41891754#4"/>
    <trip id="veh207" type="veh_passenger" depart="911.30" departLane="best" from="706456180#6" to="5018670#11"/>
    <trip id="veh208" type="veh_passenger" depart="915.70" departLane="best" from="417096032#1" to="-8947064#1"/>
    <trip id="veh209" type="veh_passenger" depart="920.11" departLane="best" from="8953730#22" to="544274586#6"/>
    <trip id="veh210" type="veh_passenger" depart="924.51" departLane="best" from="699688806#2" to="496364798#8"/>
    <trip id="veh211" type="veh_passenger" depart="928.91" departLane="best" from="-532956010#0" to="-8950612"/>
    <trip id="veh212" type="veh_passenger" depart="933.31" departLane="best" from="-52869636#4" to="-8953730#16"/>
    <trip id="veh213" type="veh_passenger" depart="937.72" departLane="best" from="741324841#2" to="1086342624"/>
    <trip id="veh214" type="veh_passenger" depart="942.12" departLane="best" from="8948399#1" to="693788083"/>
    <trip id="veh215" type="veh_passenger" depart="946.52" departLane="best" from="417094216#0" to="5012169#1"/>
    <trip id="veh216" type="veh_passenger" depart="950.92" departLane="best" from="417094221#1" to="-8928619#17"/>
    <trip id="veh217" type="veh_passenger" depart="955.33" departLane="best" from="417094223#2" to="8928619#15"/>
    <trip id="veh218" type="veh_passenger" depart="959.73" departLane="best" from="506687024#1" to="693792675#2"/>
    <trip id="veh219" type="veh_passenger" depart="964.13" departLane="best" from="772988468#1" to="699688806#12"/>
    <trip id="veh222" type="veh_passenger" depart="977.34" departLane="best" from="5018670#11" to="517626044"/>
    <trip id="veh223" type="veh_passenger" depart="981.74" departLane="best" from="-8945782#2" to="8928883#8"/>
    <trip id="veh224" type="veh_passenger" depart="986.14" departLane="best" from="-417095072#0" to="-367486604#1"/>
    <trip id="veh225" type="veh_passenger" depart="990.54" departLane="best" from="377332355#3" to="-690330588#1"/>
    <trip id="veh226" type="veh_passenger" depart="994.95" departLane="best" departSpeed="max" from="417094214#0" to="-693836526"/>
    <trip id="veh227" type="veh_passenger" depart="999.35" departLane="best" from="417096030" to="574050534"/>
    <trip id="veh228" type="veh_passenger" depart="1003.75" departLane="best" from="-53050253#1" to="-367486604#0"/>
    <trip id="veh229" type="veh_passenger" depart="1008.15" departLane="best" departSpeed="max" from="417094214#0" to="5018670#4"/>
    <trip id="veh230" type="veh_passenger" depart="1012.56" departLane="best" from="-38133443#2" to="574034441#0"/>
    <trip id="veh231" type="veh_passenger" depart="1016.96" departLane="best" from="685732220#5" to="417096020#1"/>
    <trip id="veh232" type="veh_passenger" depart="1021.36" departLane="best" from="41891754#3" to="38133445#0"/>
    <trip id="veh233" type="veh_passenger" depart="1025.76" departLane="best" from="8938605#1" to="112358427#5"/>
    <trip id="veh234" type="veh_passenger" depart="1030.17" departLane="best" from="699688806#14" to="38133445#0"/>
    <trip id="veh235" type="veh_passenger" depart="1034.57" departLane="best" from="699688806#1" to="706456180#3"/>
    <trip id="veh236" type="veh_passenger" depart="1038.97" departLane="best" from="-8954968" to="-496364798#6"/>
    <trip id="veh237" type="veh_passenger" depart="1043.37" departLane="best" from="377332355#4" to="5012169#0"/>
    <trip id="veh239" type="veh_passenger" depart="1052.18" departLane="best" departSpeed="max" from="635376259#0" to="699688806#6"/>
    <trip id="veh240" type="veh_passenger" depart="1056.58" departLane="best" from="65592872#0" to="699686163"/>
    <trip id="veh241" type="veh_passenger" depart="1060.98" departLane="best" departSpeed="max" from="8950612" to="-8927866#4"/>
    <trip id="veh242" type="veh_passenger" depart="1065.39" departLane="best" from="377332355#6" to="-690330588#1"/>
    <trip id="veh243" type="veh_passenger" depart="1069.79" departLane="best" from="-690330589#3" to="685931320#0"/>
    <trip id="veh244" type="veh_passenger" depart="1074.19" departLane="best" from="5018670#5" to="8928883#5"/>
    <trip id="veh245" type="veh_passenger" depart="1078.59" departLane="best" from="693795524#0" to="699688806#13"/>
    <trip id="veh246" type="veh_passenger" depart="1083.00" departLane="best" departSpeed="max" from="-848698784" to="52869636#1"/>
    <trip id="veh247" type="veh_passenger" depart="1087.40" departLane="best" from="699686163" to="-533628266#0"/>
    <trip id="veh248" type="veh_passenger" depart="1091.80" departLane="best" from="706456180#1" to="8953730#0"/>
    <trip id="veh249" type="veh_passenger" depart="1096.20" departLane="best" from="-685732220#0" to="-367486604#0"/>
    <trip id="veh250" type="veh_passenger" depart="1100.61" departLane="best" from="275400486#0" to="690243741"/>
    <trip id="veh251" type="veh_passenger" depart="1105.01" departLane="best" from="698370594#1" to="-41891754#3"/>
    <trip id="veh252" type="veh_passenger" depart="1109.41" departLane="best" from="690330589#2" to="532956010#8"/>
    <trip id="veh253" type="veh_passenger" depart="1113.81" departLane="best" from="-544274586#4" to="699688806#2"/>
    <trip id="veh254" type="veh_passenger" depart="1118.22" departLane="best" from="-690062845" to="8960784#2"/>
    <trip id="veh255" type="veh_passenger" depart="1122.62" departLane="best" from="699686158" to="30125081#0"/>
    <trip id="veh256" type="veh_passenger" depart="1127.02" departLane="best" from="417095040#0" to="377332356#4"/>