<?xml version="1.0" encoding="UTF-8"?>

<!-- generated on 2022-10-27 23:47:31 by Eclipse SUMO netedit Version 1.14.1
<configuration xmlns:xsi="http://www.w3.org/2001/XMLSchema-instance" xsi:noNamespaceSchemaLocation="http://sumo.dlr.de/xsd/netconvertConfiguration.xsd">

    <input>
        <sumo-net-file value="C:/Users/zsy/Sumo/2022-10-27-22-55-04/osm.net.xml"/>
    </input>

    <output>
        <output-file value="E:\oa\sf.net.xml"/>
        <output.street-names value="true"/>
    </output>

    <processing>
        <geometry.min-radius.fix.railways value="false"/>
        <geometry.max-grade.fix value="false"/>
        <offset.disable-normalization value="true"/>
        <lefthand value="false"/>
    </processing>

    <junctions>
        <no-turnarounds value="true"/>
        <junctions.corner-detail value="5"/>
        <junctions.limit-turn-speed value="5.5"/>
        <rectangular-lane-cut value="false"/>
    </junctions>

    <pedestrian>
        <walkingareas value="false"/>
    </pedestrian>

</configuration>
-->

<net version="1.9" junctionCornerDetail="5" limitTurnSpeed="5.50" xmlns:xsi="http://www.w3.org/2001/XMLSchema-instance" xsi:noNamespaceSchemaLocation="http://sumo.dlr.de/xsd/net_file.xsd">

    <location netOffset="-546256.14,-4173869.64" convBoundary="0.00,0.00,2182.93,2352.10" origBoundary="-122.475137,37.710831,-122.450399,37.732064" projParameter="+proj=utm +zone=10 +ellps=WGS84 +datum=WGS84 +units=m +no_defs"/>

    <type id="highway.bridleway" priority="1" numLanes="1" speed="2.78" allow="pedestrian" oneway="1" width="2.00"/>
    <type id="highway.bus_guideway" priority="1" numLanes="1" speed="27.78" allow="bus" oneway="1"/>
    <type id="highway.cycleway" priority="1" numLanes="1" speed="5.56" allow="bicycle" oneway="0" width="1.00"/>
    <type id="highway.footway" priority="1" numLanes="1" speed="2.78" allow="pedestrian" oneway="1" width="2.00"/>
    <type id="highway.ford" priority="1" numLanes="1" speed="2.78" allow="army" oneway="0"/>
    <type id="highway.living_street" priority="2" numLanes="1" speed="2.78" disallow="tram rail_urban rail rail_electric rail_fast ship" oneway="0"/>
    <type id="highway.motorway" priority="14" numLanes="2" speed="39.44" allow="private emergency authority army vip passenger hov taxi bus coach delivery truck trailer motorcycle evehicle custom1 custom2" oneway="1"/>
    <type id="highway.motorway_link" priority="9" numLanes="1" speed="22.22" allow="private emergency authority army vip passenger hov taxi bus coach delivery truck trailer motorcycle evehicle custom1 custom2" oneway="1"/>
    <type id="highway.path" priority="1" numLanes="1" speed="5.56" allow="pedestrian bicycle" oneway="0" width="2.00"/>
    <type id="highway.pedestrian" priority="1" numLanes="1" speed="2.78" allow="pedestrian" oneway="1" width="2.00"/>
    <type id="highway.primary" priority="12" numLanes="2" speed="27.78" disallow="tram rail_urban rail rail_electric rail_fast ship" oneway="0"/>
    <type id="highway.primary_link" priority="7" numLanes="1" speed="22.22" disallow="tram rail_urban rail rail_electric rail_fast ship" oneway="0"/>
    <type id="highway.raceway" priority="15" numLanes="2" speed="83.33" allow="vip" oneway="0"/>
    <type id="highway.residential" priority="3" numLanes="1" speed="13.89" disallow="tram rail_urban rail rail_electric rail_fast ship" oneway="0"/>
    <type id="highway.secondary" priority="11" numLanes="1" speed="27.78" disallow="tram rail_urban rail rail_electric rail_fast ship" oneway="0"/>
    <type id="highway.secondary_link" priority="6" numLanes="1" speed="22.22" disallow="tram rail_urban rail rail_electric rail_fast ship" oneway="0"/>
    <type id="highway.service" priority="1" numLanes="1" speed="5.56" allow="pedestrian delivery bicycle" oneway="0"/>
    <type id="highway.stairs" priority="1" numLanes="1" speed="1.39" allow="pedestrian" oneway="1" width="2.00"/>
    <type id="highway.step" priority="1" numLanes="1" speed="1.39" allow="pedestrian" oneway="1" width="2.00"/>
    <type id="highway.steps" priority="1" numLanes="1" speed="1.39" allow="pedestrian" oneway="1" width="2.00"/>
    <type id="highway.tertiary" priority="10" numLanes="1" speed="22.22" disallow="tram rail_urban rail rail_electric rail_fast ship" oneway="0"/>
    <type id="highway.tertiary_link" priority="5" numLanes="1" speed="22.22" disallow="tram rail_urban rail rail_electric rail_fast ship" oneway="0"/>
    <type id="highway.track" priority="1" numLanes="1" speed="5.56" allow="pedestrian motorcycle moped bicycle" oneway="0"/>
    <type id="highway.trunk" priority="13" numLanes="2" speed="27.78" disallow="pedestrian bicycle tram rail_urban rail rail_electric rail_fast ship" oneway="0"/>
    <type id="highway.trunk_link" priority="8" numLanes="1" speed="22.22" disallow="pedestrian bicycle tram rail_urban rail rail_electric rail_fast ship" oneway="0"/>
    <type id="highway.unclassified" priority="4" numLanes="1" speed="13.89" disallow="tram rail_urban rail rail_electric rail_fast ship" oneway="0"/>
    <type id="highway.unsurfaced" priority="1" numLanes="1" speed="8.33" disallow="tram rail_urban rail rail_electric rail_fast ship" oneway="0"/>
    <type id="railway.highspeed" priority="21" numLanes="1" speed="69.44" allow="rail_fast" oneway="1"/>
    <type id="railway.light_rail" priority="19" numLanes="1" speed="27.78" allow="rail_urban" oneway="1"/>
    <type id="railway.preserved" priority="16" numLanes="1" speed="27.78" allow="rail" oneway="1"/>
    <type id="railway.rail" priority="20" numLanes="1" speed="44.44" allow="rail" oneway="1"/>
    <type id="railway.subway" priority="18" numLanes="1" speed="27.78" allow="rail_urban" oneway="1"/>
    <type id="railway.tram" priority="17" numLanes="1" speed="13.89" allow="tram" oneway="1"/>

    <edge id=":1196715437_0" function="internal">
        <lane id=":1196715437_0_0" index="0" disallow="tram rail_urban rail rail_electric rail_fast ship" speed="13.89" length="15.33" shape="371.48,1775.30 357.51,1768.99"/>
    </edge>
    <edge id=":1196715437_1" function="internal">
        <lane id=":1196715437_1_0" index="0" disallow="tram rail_urban rail rail_electric rail_fast ship" speed="10.13" length="0.87" shape="371.48,1775.30 370.71,1774.90"/>
    </edge>
    <edge id=":1196715437_4" function="internal">
        <lane id=":1196715437_4_0" index="0" disallow="tram rail_urban rail rail_electric rail_fast ship" speed="10.13" length="13.70" shape="370.71,1774.90 366.88,1772.87 363.57,1770.52 361.55,1768.27 360.80,1766.11"/>
    </edge>
    <edge id=":1196715437_2" function="internal">
        <lane id=":1196715437_2_0" index="0" disallow="tram rail_urban rail rail_electric rail_fast ship" speed="10.02" length="15.86" shape="372.64,1770.97 370.46,1772.02 367.22,1772.04 362.90,1771.03 357.51,1768.99"/>
    </edge>
    <edge id=":1196715437_3" function="internal">
        <lane id=":1196715437_3_0" index="0" disallow="tram rail_urban rail rail_electric rail_fast ship" speed="7.59" length="19.58" shape="372.64,1770.97 367.75,1774.63 364.15,1775.04 361.83,1772.20 360.80,1766.11"/>
    </edge>
    <edge id=":1202382590_0" function="internal">
        <lane id=":1202382590_0_0" index="0" allow="pedestrian delivery bicycle" speed="3.65" length="4.67" shape="71.57,986.27 70.20,986.73 69.32,986.56 68.93,985.75 69.03,984.31"/>
    </edge>
    <edge id=":1607089606_0" function="internal">
        <lane id=":1607089606_0_0" index="0" disallow="tram rail_urban rail rail_electric rail_fast ship" speed="11.18" length="14.40" shape="1024.27,1203.76 1009.87,1203.56"/>
    </edge>
    <edge id=":1607089606_1" function="internal">
        <lane id=":1607089606_1_0" index="0" disallow="tram rail_urban rail rail_electric rail_fast ship" speed="8.00" length="14.19" shape="1024.27,1203.76 1020.42,1203.16 1017.70,1201.47 1016.09,1198.70 1015.59,1194.84"/>
    </edge>
    <edge id=":1607089606_2" function="internal">
        <lane id=":1607089606_2_0" index="0" disallow="tram rail_urban rail rail_electric rail_fast ship" speed="3.65" length="4.67" shape="1024.27,1203.76 1023.08,1202.94 1022.69,1202.14 1023.10,1201.34 1024.31,1200.56"/>
    </edge>
    <edge id=":1607089606_3" function="internal">
        <lane id=":1607089606_3_0" index="0" disallow="tram rail_urban rail rail_electric rail_fast ship" speed="6.51" length="9.03" shape="1018.79,1194.88 1019.11,1197.34 1020.13,1199.10 1021.87,1200.18 1024.31,1200.56"/>
    </edge>
    <edge id=":1607089606_4" function="internal">
        <lane id=":1607089606_4_0" index="0" disallow="tram rail_urban rail rail_electric rail_fast ship" speed="8.00" length="14.19" shape="1018.79,1194.88 1018.19,1198.72 1016.50,1201.45 1013.73,1203.06 1009.87,1203.56"/>
    </edge>
    <edge id=":1607089606_5" function="internal">
        <lane id=":1607089606_5_0" index="0" disallow="tram rail_urban rail rail_electric rail_fast ship" speed="3.65" length="4.67" shape="1018.79,1194.88 1017.97,1196.07 1017.17,1196.46 1016.37,1196.05 1015.59,1194.84"/>
    </edge>
    <edge id=":1607089606_6" function="internal">
        <lane id=":1607089606_6_0" index="0" disallow="tram rail_urban rail rail_electric rail_fast ship" speed="6.51" length="9.03" shape="1009.91,1200.36 1012.37,1200.05 1014.13,1199.02 1015.21,1197.28 1015.59,1194.84"/>
    </edge>
    <edge id=":1607089606_7" function="internal">
        <lane id=":1607089606_7_0" index="0" disallow="tram rail_urban rail rail_electric rail_fast ship" speed="11.18" length="14.40" shape="1009.91,1200.36 1024.31,1200.56"/>
    </edge>
    <edge id=":1607089606_8" function="internal">
        <lane id=":1607089606_8_0" index="0" disallow="tram rail_urban rail rail_electric rail_fast ship" speed="3.65" length="4.67" shape="1009.91,1200.36 1011.10,1201.18 1011.49,1201.98 1011.08,1202.78 1009.87,1203.56"/>
    </edge>
    <edge id=":1607089611_0" function="internal">
        <lane id=":1607089611_0_0" index="0" disallow="tram rail_urban rail rail_electric rail_fast ship" speed="11.18" length="14.40" shape="548.38,1197.63 533.98,1197.50"/>
    </edge>
    <edge id=":1607089611_1" function="internal">
        <lane id=":1607089611_1_0" index="0" disallow="tram rail_urban rail rail_electric rail_fast ship" speed="7.98" length="14.25" shape="548.38,1197.63 544.51,1197.04 541.78,1195.35 540.18,1192.56 539.72,1188.68"/>
    </edge>
    <edge id=":1607089611_2" function="internal">
        <lane id=":1607089611_2_0" index="0" disallow="tram rail_urban rail rail_electric rail_fast ship" speed="3.65" length="4.67" shape="548.38,1197.63 547.19,1196.81 546.80,1196.01 547.20,1195.21 548.41,1194.43"/>
    </edge>
    <edge id=":1607089611_3" function="internal">
        <lane id=":1607089611_3_0" index="0" disallow="tram rail_urban rail rail_electric rail_fast ship" speed="6.48" length="9.03" shape="542.92,1188.75 543.21,1191.22 544.23,1192.98 545.96,1194.05 548.41,1194.43"/>
    </edge>
    <edge id=":1607089611_4" function="internal">
        <lane id=":1607089611_4_0" index="0" disallow="tram rail_urban rail rail_electric rail_fast ship" speed="8.05" length="14.21" shape="542.92,1188.75 542.28,1192.61 540.58,1195.35 537.81,1196.98 533.98,1197.50"/>
    </edge>
    <edge id=":1607089611_5" function="internal">
        <lane id=":1607089611_5_0" index="0" disallow="tram rail_urban rail rail_electric rail_fast ship" speed="3.65" length="4.67" shape="542.92,1188.75 542.09,1189.93 541.28,1190.31 540.49,1189.90 539.72,1188.68"/>
    </edge>
    <edge id=":1607089611_6" function="internal">
        <lane id=":1607089611_6_0" index="0" disallow="tram rail_urban rail rail_electric rail_fast ship" speed="6.56" length="9.11" shape="534.01,1194.30 536.46,1193.96 538.23,1192.92 539.31,1191.15 539.72,1188.68"/>
    </edge>
    <edge id=":1607089611_7" function="internal">
        <lane id=":1607089611_7_0" index="0" disallow="tram rail_urban rail rail_electric rail_fast ship" speed="11.18" length="14.40" shape="534.01,1194.30 548.41,1194.43"/>
    </edge>
    <edge id=":1607089611_8" function="internal">
        <lane id=":1607089611_8_0" index="0" disallow="tram rail_urban rail rail_electric rail_fast ship" speed="3.65" length="4.67" shape="534.01,1194.30 535.20,1195.11 535.60,1195.91 535.19,1196.71 533.98,1197.50"/>
    </edge>
    <edge id=":1607089623_0" function="internal">
        <lane id=":1607089623_0_0" index="0" disallow="tram rail_urban rail rail_electric rail_fast ship" speed="6.84" length="9.09" shape="936.28,1208.27 935.66,1205.77 934.49,1203.97 932.76,1202.88 930.47,1202.49"/>
    </edge>
    <edge id=":1607089623_1" function="internal">
        <lane id=":1607089623_1_0" index="0" disallow="tram rail_urban rail rail_electric rail_fast ship" speed="13.89" length="14.51" shape="936.28,1208.27 936.01,1204.61 935.99,1201.03 936.09,1197.44 936.19,1193.77"/>
    </edge>
    <edge id=":1607089623_2" function="internal">
        <lane id=":1607089623_2_0" index="0" disallow="tram rail_urban rail rail_electric rail_fast ship" speed="7.48" length="4.31" shape="936.28,1208.27 936.85,1205.16 937.53,1204.23"/>
    </edge>
    <edge id=":1607089623_3" function="internal">
        <lane id=":1607089623_3_0" index="0" disallow="tram rail_urban rail rail_electric rail_fast ship" speed="3.66" length="1.45" shape="936.28,1208.27 937.07,1207.05"/>
    </edge>
    <edge id=":1607089623_16" function="internal">
        <lane id=":1607089623_16_0" index="0" disallow="tram rail_urban rail rail_electric rail_fast ship" speed="7.48" length="9.17" shape="937.53,1204.23 938.90,1202.32 941.82,1200.26 944.98,1199.49"/>
    </edge>
    <edge id=":1607089623_17" function="internal">
        <lane id=":1607089623_17_0" index="0" disallow="tram rail_urban rail rail_electric rail_fast ship" speed="3.66" length="3.25" shape="937.07,1207.05 937.87,1206.64 938.68,1207.04 939.50,1208.24"/>
    </edge>
    <edge id=":1607089623_4" function="internal">
        <lane id=":1607089623_4_0" index="0" disallow="tram rail_urban rail rail_electric rail_fast ship" speed="6.27" length="9.15" shape="944.94,1202.69 942.31,1203.00 940.52,1204.03 939.59,1205.78 939.50,1208.24"/>
    </edge>
    <edge id=":1607089623_5" function="internal">
        <lane id=":1607089623_5_0" index="0" disallow="tram rail_urban rail rail_electric rail_fast ship" speed="11.18" length="14.47" shape="944.94,1202.69 930.47,1202.49"/>
    </edge>
    <edge id=":1607089623_6" function="internal">
        <lane id=":1607089623_6_0" index="0" disallow="tram rail_urban rail rail_electric rail_fast ship" speed="8.02" length="14.25" shape="944.94,1202.69 941.07,1202.09 938.32,1200.40 936.69,1197.63 936.19,1193.77"/>
    </edge>
    <edge id=":1607089623_7" function="internal">
        <lane id=":1607089623_7_0" index="0" disallow="tram rail_urban rail rail_electric rail_fast ship" speed="3.65" length="4.67" shape="944.94,1202.69 943.75,1201.87 943.36,1201.07 943.77,1200.27 944.98,1199.49"/>
    </edge>
    <edge id=":1607089623_8" function="internal">
        <lane id=":1607089623_8_0" index="0" disallow="tram rail_urban rail rail_electric rail_fast ship" speed="6.53" length="9.09" shape="939.39,1193.81 939.71,1196.27 940.75,1198.03 942.51,1199.10 944.98,1199.49"/>
    </edge>
    <edge id=":1607089623_9" function="internal">
        <lane id=":1607089623_9_0" index="0" disallow="tram rail_urban rail rail_electric rail_fast ship" speed="13.89" length="14.44" shape="939.39,1193.81 939.29,1197.48 939.20,1201.04 939.22,1204.59 939.50,1208.24"/>
    </edge>
    <edge id=":1607089623_10" function="internal">
        <lane id=":1607089623_10_0" index="0" disallow="tram rail_urban rail rail_electric rail_fast ship" speed="7.80" length="4.17" shape="939.39,1193.81 938.55,1196.93 937.99,1197.68"/>
    </edge>
    <edge id=":1607089623_11" function="internal">
        <lane id=":1607089623_11_0" index="0" disallow="tram rail_urban rail rail_electric rail_fast ship" speed="3.65" length="1.44" shape="939.39,1193.81 938.57,1195.00"/>
    </edge>
    <edge id=":1607089623_18" function="internal">
        <lane id=":1607089623_18_0" index="0" disallow="tram rail_urban rail rail_electric rail_fast ship" speed="7.80" length="9.28" shape="937.99,1197.68 936.46,1199.73 933.60,1201.74 930.47,1202.49"/>
    </edge>
    <edge id=":1607089623_19" function="internal">
        <lane id=":1607089623_19_0" index="0" disallow="tram rail_urban rail rail_electric rail_fast ship" speed="3.65" length="3.23" shape="938.57,1195.00 937.76,1195.39 936.97,1194.98 936.19,1193.77"/>
    </edge>
    <edge id=":1607089623_12" function="internal">
        <lane id=":1607089623_12_0" index="0" disallow="tram rail_urban rail rail_electric rail_fast ship" speed="6.51" length="9.03" shape="930.51,1199.29 932.97,1198.98 934.73,1197.95 935.80,1196.21 936.19,1193.77"/>
    </edge>
    <edge id=":1607089623_13" function="internal">
        <lane id=":1607089623_13_0" index="0" disallow="tram rail_urban rail rail_electric rail_fast ship" speed="11.18" length="14.47" shape="930.51,1199.29 944.98,1199.49"/>
    </edge>
    <edge id=":1607089623_14" function="internal">
        <lane id=":1607089623_14_0" index="0" disallow="tram rail_urban rail rail_electric rail_fast ship" speed="8.37" length="14.07" shape="930.51,1199.29 934.05,1199.89 936.73,1201.58 938.54,1204.36 939.50,1208.24"/>
    </edge>
    <edge id=":1607089623_15" function="internal">
        <lane id=":1607089623_15_0" index="0" disallow="tram rail_urban rail rail_electric rail_fast ship" speed="3.65" length="4.67" shape="930.51,1199.29 931.70,1200.11 932.09,1200.91 931.68,1201.71 930.47,1202.49"/>
    </edge>
    <edge id=":1607089625_0" function="internal">
        <lane id=":1607089625_0_0" index="0" disallow="tram rail_urban rail rail_electric rail_fast ship" speed="6.51" length="9.05" shape="792.26,783.57 789.79,783.88 788.02,784.90 786.94,786.63 786.55,789.08"/>
    </edge>
    <edge id=":1607089625_1" function="internal">
        <lane id=":1607089625_1_0" index="0" disallow="tram rail_urban rail rail_electric rail_fast ship" speed="13.89" length="14.43" shape="792.26,783.57 777.83,783.32"/>
    </edge>
    <edge id=":1607089625_2" function="internal">
        <lane id=":1607089625_2_0" index="0" disallow="tram rail_urban rail rail_electric rail_fast ship" speed="3.65" length="1.44" shape="792.26,783.57 791.08,782.73"/>
    </edge>
    <edge id=":1607089625_9" function="internal">
        <lane id=":1607089625_9_0" index="0" disallow="tram rail_urban rail rail_electric rail_fast ship" speed="3.65" length="3.23" shape="791.08,782.73 790.71,781.92 791.14,781.13 792.36,780.37"/>
    </edge>
    <edge id=":1607089625_3" function="internal">
        <lane id=":1607089625_3_0" index="0" disallow="tram rail_urban rail rail_electric rail_fast ship" speed="13.89" length="14.48" shape="777.89,780.12 792.36,780.37"/>
    </edge>
    <edge id=":1607089625_4" function="internal">
        <lane id=":1607089625_4_0" index="0" disallow="tram rail_urban rail rail_electric rail_fast ship" speed="8.01" length="4.07" shape="777.89,780.12 781.72,780.74 781.88,780.83"/>
    </edge>
    <edge id=":1607089625_5" function="internal">
        <lane id=":1607089625_5_0" index="0" disallow="tram rail_urban rail rail_electric rail_fast ship" speed="3.65" length="1.44" shape="777.89,780.12 779.07,780.94"/>
    </edge>
    <edge id=":1607089625_10" function="internal">
        <lane id=":1607089625_10_0" index="0" disallow="tram rail_urban rail rail_electric rail_fast ship" speed="8.01" length="10.14" shape="781.88,780.83 784.45,782.43 786.05,785.21 786.55,789.08"/>
    </edge>
    <edge id=":1607089625_11" function="internal">
        <lane id=":1607089625_11_0" index="0" disallow="tram rail_urban rail rail_electric rail_fast ship" speed="3.65" length="3.23" shape="779.07,780.94 779.46,781.75 779.05,782.54 777.83,783.32"/>
    </edge>
    <edge id=":1607089625_6" function="internal">
        <lane id=":1607089625_6_0" index="0" disallow="tram rail_urban rail rail_electric rail_fast ship" speed="6.52" length="9.05" shape="783.35,789.04 783.03,786.57 782.01,784.80 780.28,783.71 777.83,783.32"/>
    </edge>
    <edge id=":1607089625_7" function="internal">
        <lane id=":1607089625_7_0" index="0" disallow="tram rail_urban rail rail_electric rail_fast ship" speed="8.01" length="14.27" shape="783.35,789.04 783.96,785.19 785.66,782.46 788.47,780.86 792.36,780.37"/>
    </edge>
    <edge id=":1607089625_8" function="internal">
        <lane id=":1607089625_8_0" index="0" disallow="tram rail_urban rail rail_electric rail_fast ship" speed="3.65" length="4.67" shape="783.35,789.04 784.17,787.85 784.97,787.46 785.77,787.87 786.55,789.08"/>
    </edge>
    <edge id=":1607089626_0" function="internal">
        <lane id=":1607089626_0_0" index="0" disallow="tram rail_urban rail rail_electric rail_fast ship" speed="11.60" length="15.39" shape="388.25,1203.99 385.20,1200.54 382.08,1198.08 378.89,1196.59 375.63,1196.09"/>
    </edge>
    <edge id=":1607089626_1" function="internal">
        <lane id=":1607089626_1_0" index="0" disallow="tram rail_urban rail rail_electric rail_fast ship" speed="13.89" length="18.34" shape="388.25,1203.99 385.87,1200.40 383.61,1196.00 381.95,1191.41 381.34,1187.24"/>
    </edge>
    <edge id=":1607089626_2" function="internal">
        <lane id=":1607089626_2_0" index="0" disallow="tram rail_urban rail rail_electric rail_fast ship" speed="7.40" length="6.24" shape="388.25,1203.99 385.40,1199.14 385.39,1198.52"/>
    </edge>
    <edge id=":1607089626_3" function="internal">
        <lane id=":1607089626_3_0" index="0" disallow="tram rail_urban rail rail_electric rail_fast ship" speed="3.65" length="1.44" shape="388.25,1203.99 388.12,1202.55"/>
    </edge>
    <edge id=":1607089626_16" function="internal">
        <lane id=":1607089626_16_0" index="0" disallow="tram rail_urban rail rail_electric rail_fast ship" speed="7.40" length="11.79" shape="385.39,1198.52 385.34,1195.70 388.07,1193.66 393.59,1193.02"/>
    </edge>
    <edge id=":1607089626_17" function="internal">
        <lane id=":1607089626_17_0" index="0" disallow="tram rail_urban rail rail_electric rail_fast ship" speed="3.65" length="3.23" shape="388.12,1202.55 388.48,1201.73 389.36,1201.54 390.74,1201.97"/>
    </edge>
    <edge id=":1607089626_4" function="internal">
        <lane id=":1607089626_4_0" index="0" disallow="tram rail_urban rail rail_electric rail_fast ship" speed="5.55" length="9.47" shape="393.56,1196.22 390.65,1196.55 389.21,1197.62 389.24,1199.43 390.74,1201.97"/>
    </edge>
    <edge id=":1607089626_5" function="internal">
        <lane id=":1607089626_5_0" index="0" disallow="tram rail_urban rail rail_electric rail_fast ship" speed="11.18" length="17.93" shape="393.56,1196.22 375.63,1196.09"/>
    </edge>
    <edge id=":1607089626_6" function="internal">
        <lane id=":1607089626_6_0" index="0" disallow="tram rail_urban rail rail_electric rail_fast ship" speed="8.48" length="16.24" shape="393.56,1196.22 389.51,1195.42 385.52,1193.37 382.50,1190.51 381.34,1187.24"/>
    </edge>
    <edge id=":1607089626_7" function="internal">
        <lane id=":1607089626_7_0" index="0" disallow="tram rail_urban rail rail_electric rail_fast ship" speed="3.65" length="4.67" shape="393.56,1196.22 392.37,1195.41 391.97,1194.60 392.38,1193.81 393.59,1193.02"/>
    </edge>
    <edge id=":1607089626_8" function="internal">
        <lane id=":1607089626_8_0" index="0" disallow="tram rail_urban rail rail_electric rail_fast ship" speed="7.38" length="12.03" shape="384.54,1187.31 385.06,1189.78 386.74,1191.55 389.58,1192.63 393.59,1193.02"/>
    </edge>
    <edge id=":1607089626_9" function="internal">
        <lane id=":1607089626_9_0" index="0" disallow="tram rail_urban rail rail_electric rail_fast ship" speed="13.89" length="16.16" shape="384.54,1187.31 385.03,1191.15 386.46,1195.03 388.47,1198.71 390.74,1201.97"/>
    </edge>
    <edge id=":1607089626_10" function="internal">
        <lane id=":1607089626_10_0" index="0" disallow="tram rail_urban rail rail_electric rail_fast ship" speed="8.06" length="2.31" shape="384.54,1187.31 384.17,1189.60"/>
    </edge>
    <edge id=":1607089626_11" function="internal">
        <lane id=":1607089626_11_0" index="0" disallow="tram rail_urban rail rail_electric rail_fast ship" speed="3.65" length="1.28" shape="384.54,1187.31 383.81,1188.37"/>
    </edge>
    <edge id=":1607089626_18" function="internal">
        <lane id=":1607089626_18_0" index="0" disallow="tram rail_urban rail rail_electric rail_fast ship" speed="8.06" length="11.89" shape="384.17,1189.60 383.91,1191.17 382.22,1193.91 379.46,1195.56 375.63,1196.09"/>
    </edge>
    <edge id=":1607089626_19" function="internal">
        <lane id=":1607089626_19_0" index="0" disallow="tram rail_urban rail rail_electric rail_fast ship" speed="3.65" length="3.39" shape="383.81,1188.37 383.71,1188.50 382.91,1188.88 382.12,1188.46 381.34,1187.24"/>
    </edge>
    <edge id=":1607089626_12" function="internal">
        <lane id=":1607089626_12_0" index="0" disallow="tram rail_urban rail rail_electric rail_fast ship" speed="6.57" length="9.11" shape="375.64,1192.89 378.09,1192.55 379.85,1191.49 380.94,1189.72 381.34,1187.24"/>
    </edge>
    <edge id=":1607089626_13" function="internal">
        <lane id=":1607089626_13_0" index="0" disallow="tram rail_urban rail rail_electric rail_fast ship" speed="11.18" length="17.95" shape="375.64,1192.89 393.59,1193.02"/>
    </edge>
    <edge id=":1607089626_14" function="internal">
        <lane id=":1607089626_14_0" index="0" disallow="tram rail_urban rail rail_electric rail_fast ship" speed="12.50" length="17.99" shape="375.64,1192.89 379.24,1193.68 383.42,1195.74 387.49,1198.64 390.74,1201.97"/>
    </edge>
    <edge id=":1607089626_15" function="internal">
        <lane id=":1607089626_15_0" index="0" disallow="tram rail_urban rail rail_electric rail_fast ship" speed="3.65" length="4.67" shape="375.64,1192.89 376.84,1193.69 377.24,1194.50 376.83,1195.29 375.63,1196.09"/>
    </edge>
    <edge id=":1607089652_0" function="internal">
        <lane id=":1607089652_0_0" index="0" disallow="tram rail_urban rail rail_electric rail_fast ship" speed="11.18" length="14.37" shape="628.05,1198.39 613.68,1198.22"/>
    </edge>
    <edge id=":1607089652_1" function="internal">
        <lane id=":1607089652_1_0" index="0" disallow="tram rail_urban rail rail_electric rail_fast ship" speed="8.00" length="14.18" shape="628.05,1198.39 624.21,1197.79 621.49,1196.10 619.87,1193.33 619.37,1189.48"/>
    </edge>
    <edge id=":1607089652_2" function="internal">
        <lane id=":1607089652_2_0" index="0" disallow="tram rail_urban rail rail_electric rail_fast ship" speed="3.65" length="4.67" shape="628.05,1198.39 626.86,1197.57 626.47,1196.77 626.88,1195.97 628.09,1195.19"/>
    </edge>
    <edge id=":1607089652_3" function="internal">
        <lane id=":1607089652_3_0" index="0" disallow="tram rail_urban rail rail_electric rail_fast ship" speed="6.51" length="9.02" shape="622.57,1189.52 622.89,1191.97 623.92,1193.73 625.65,1194.81 628.09,1195.19"/>
    </edge>
    <edge id=":1607089652_4" function="internal">
        <lane id=":1607089652_4_0" index="0" disallow="tram rail_urban rail rail_electric rail_fast ship" speed="8.01" length="14.18" shape="622.57,1189.52 621.97,1193.36 620.29,1196.09 617.53,1197.71 613.68,1198.22"/>
    </edge>
    <edge id=":1607089652_5" function="internal">
        <lane id=":1607089652_5_0" index="0" disallow="tram rail_urban rail rail_electric rail_fast ship" speed="3.65" length="4.67" shape="622.57,1189.52 621.76,1190.71 620.95,1191.10 620.16,1190.69 619.37,1189.48"/>
    </edge>
    <edge id=":1607089652_6" function="internal">
        <lane id=":1607089652_6_0" index="0" disallow="tram rail_urban rail rail_electric rail_fast ship" speed="6.51" length="9.03" shape="613.71,1195.02 616.16,1194.70 617.92,1193.66 618.99,1191.92 619.37,1189.48"/>
    </edge>
    <edge id=":1607089652_7" function="internal">
        <lane id=":1607089652_7_0" index="0" disallow="tram rail_urban rail rail_electric rail_fast ship" speed="11.18" length="14.38" shape="613.71,1195.02 628.09,1195.19"/>
    </edge>
    <edge id=":1607089652_8" function="internal">
        <lane id=":1607089652_8_0" index="0" disallow="tram rail_urban rail rail_electric rail_fast ship" speed="3.65" length="4.67" shape="613.71,1195.02 614.90,1195.83 615.30,1196.64 614.89,1197.43 613.68,1198.22"/>
    </edge>
    <edge id=":1607089656_0" function="internal">
        <lane id=":1607089656_0_0" index="0" disallow="tram rail_urban rail rail_electric rail_fast ship" speed="6.50" length="9.03" shape="712.86,782.27 710.41,782.58 708.64,783.60 707.57,785.33 707.18,787.78"/>
    </edge>
    <edge id=":1607089656_1" function="internal">
        <lane id=":1607089656_1_0" index="0" disallow="tram rail_urban rail rail_electric rail_fast ship" speed="13.89" length="14.39" shape="712.86,782.27 698.47,782.02"/>
    </edge>
    <edge id=":1607089656_2" function="internal">
        <lane id=":1607089656_2_0" index="0" disallow="tram rail_urban rail rail_electric rail_fast ship" speed="3.65" length="1.44" shape="712.86,782.27 711.67,781.45"/>
    </edge>
    <edge id=":1607089656_9" function="internal">
        <lane id=":1607089656_9_0" index="0" disallow="tram rail_urban rail rail_electric rail_fast ship" speed="3.65" length="3.23" shape="711.67,781.45 711.29,780.64 711.70,779.85 712.91,779.07"/>
    </edge>
    <edge id=":1607089656_3" function="internal">
        <lane id=":1607089656_3_0" index="0" disallow="tram rail_urban rail rail_electric rail_fast ship" speed="13.89" length="14.38" shape="698.53,778.83 712.91,779.07"/>
    </edge>
    <edge id=":1607089656_4" function="internal">
        <lane id=":1607089656_4_0" index="0" disallow="tram rail_urban rail rail_electric rail_fast ship" speed="8.01" length="4.06" shape="698.53,778.83 702.36,779.44 702.51,779.53"/>
    </edge>
    <edge id=":1607089656_5" function="internal">